Version 4
SHEET 1 880 680
WIRE -16 -272 -112 -272
WIRE 192 -272 64 -272
WIRE 432 -272 256 -272
WIRE -112 -128 -112 -272
WIRE -16 -128 -112 -128
WIRE 192 -128 64 -128
WIRE 432 -128 432 -272
WIRE 432 -128 256 -128
WIRE 240 -64 176 -64
WIRE 240 -32 240 -64
WIRE 176 96 176 -64
WIRE -112 112 -112 -128
WIRE -64 112 -112 112
WIRE 144 112 -64 112
WIRE 432 128 432 -128
WIRE 432 128 208 128
WIRE -112 144 -112 112
WIRE 144 144 16 144
WIRE 176 192 176 160
WIRE 16 336 16 144
WIRE 112 336 16 336
WIRE 432 336 432 128
WIRE 432 336 192 336
WIRE 16 416 16 336
WIRE -112 496 -112 208
FLAG 176 272 0
FLAG 240 48 0
FLAG 16 496 0
FLAG -64 112 Vo
FLAG -112 496 0
SYMBOL Opamps\\UniversalOpamp2 176 128 R0
SYMATTR InstName U1
SYMBOL voltage 240 -48 R0
WINDOW 123 0 0 Left 2
WINDOW 39 0 0 Left 2
SYMATTR InstName V1
SYMATTR Value 12
SYMBOL voltage 176 176 R0
WINDOW 123 0 0 Left 2
WINDOW 39 0 0 Left 2
SYMATTR InstName V2
SYMATTR Value -12
SYMBOL diode 192 -112 R270
WINDOW 0 32 32 VTop 2
WINDOW 3 0 32 VBottom 2
SYMATTR InstName D1
SYMBOL diode 256 -288 R90
WINDOW 0 0 32 VBottom 2
WINDOW 3 32 32 VTop 2
SYMATTR InstName D2
SYMBOL res 80 -288 R90
WINDOW 0 0 56 VBottom 2
WINDOW 3 32 56 VTop 2
SYMATTR InstName R1
SYMATTR Value 5000
SYMBOL res 80 -144 R90
WINDOW 0 0 56 VBottom 2
WINDOW 3 32 56 VTop 2
SYMATTR InstName R2
SYMATTR Value 5000
SYMBOL cap -96 208 R180
WINDOW 0 24 56 Left 2
WINDOW 3 24 8 Left 2
SYMATTR InstName C1
SYMATTR Value 0.01µ
SYMBOL res 0 400 R0
SYMATTR InstName R3
SYMATTR Value 2200
SYMBOL res 208 320 R90
WINDOW 0 0 56 VBottom 2
WINDOW 3 32 56 VTop 2
SYMATTR InstName R4
SYMATTR Value 3000
TEXT -296 296 Left 2 !.ic V(Vo)=10
TEXT -296 520 Left 2 !.tran .05
