Version 4
SHEET 1 880 680
WIRE 320 -64 -224 -64
WIRE -224 48 -224 -64
WIRE -224 48 -304 48
WIRE -144 48 -224 48
WIRE 96 112 -80 112
WIRE 320 112 320 -64
WIRE 320 112 272 112
WIRE 608 112 320 112
WIRE 400 144 272 144
WIRE 528 144 480 144
WIRE -304 176 -304 128
WIRE -144 176 -144 128
WIRE 96 176 -64 176
WIRE 352 176 272 176
WIRE 384 176 352 176
WIRE 608 176 608 112
WIRE 96 208 80 208
WIRE 304 208 272 208
WIRE -80 240 -80 112
WIRE -80 240 -144 240
WIRE -64 240 -64 176
WIRE -64 240 -80 240
WIRE -64 272 -64 240
WIRE -304 288 -304 240
WIRE -144 288 -144 240
WIRE -144 288 -304 288
WIRE 80 320 80 208
WIRE 352 320 352 176
WIRE 352 320 80 320
WIRE 528 320 528 144
WIRE 528 320 352 320
WIRE 384 352 384 176
WIRE 304 368 304 208
WIRE 304 368 208 368
WIRE -64 416 -64 336
WIRE 208 416 208 368
WIRE 208 416 -64 416
WIRE 208 448 208 416
WIRE -64 528 -64 416
WIRE 608 528 608 256
WIRE 608 528 -64 528
FLAG 208 448 0
FLAG 384 432 0
SYMBOL diode -320 176 R0
SYMATTR InstName D1
SYMBOL diode -128 240 R180
WINDOW 0 24 64 Left 2
WINDOW 3 24 0 Left 2
SYMATTR InstName D2
SYMBOL res -320 32 R0
SYMATTR InstName R1
SYMATTR Value 5k
SYMBOL res -160 32 R0
SYMATTR InstName R2
SYMATTR Value 5k
SYMBOL cap -80 272 R0
SYMATTR InstName C1
SYMATTR Value 0.1µ
SYMBOL res 592 160 R0
SYMATTR InstName R3
SYMATTR Value 100
SYMBOL res 496 128 R90
WINDOW 0 0 56 VBottom 2
WINDOW 3 32 56 VTop 2
SYMATTR InstName R4
SYMATTR Value 1000
SYMBOL voltage 384 336 R0
SYMATTR InstName V1
SYMBOL AutoGenerated\\TLC555 176 160 R0
SYMATTR InstName U1
TEXT -322 534 Left 2 !.tran 0.1
