Version 4
SHEET 1 880 680
SYMBOL AutoGenerated\\TLC555 144 160 R0
SYMATTR InstName U1
TEXT 58 266 Left 2 !.tran 1
